matpower-plain/case118zh.m
function mpc = case118zh
%CASE118ZH  Power flow data for 118 bus distribution system from Zhang, et al
%   Please see CASEFORMAT for details on the case file format.
%
%   Data from ...
%       Zhang D, Fu Z, Zhang L (2007) An improved TS algorithm for
%       loss-minimum reconfiguration in large-scale distribution systems.
%       77:685-694. doi: 10.1016/j.epsr.2006.06.005
%       URL: https://doi.org/10.1016/j.epsr.2006.06.005
%
%   Plain-data copy of benchmark-grids/matpower/case118zh.m: the file's
%   MATLAB statements (below, as they were) are evaluated by
%   scripts/evaluate_matpower_code.py and the matrices hold the result.
%     Vbase = mpc.bus(1, BASE_KV) * 1e3;
%     Sbase = mpc.baseMVA * 1e6;
%     mpc.branch(:, [BR_R BR_X]) = mpc.branch(:, [BR_R BR_X]) / (Vbase^2 / Sbase);
%     mpc.bus(:, [PD, QD]) = mpc.bus(:, [PD, QD]) / 1e3;

%% MATPOWER Case Format : Version 2
mpc.version = '2';

mpc.baseMVA = 10;

mpc.bus = [
	1	3	0	0	0	0	1	1	0	11	1	1	1;
	2	1	0.13384000000000001	0.10114000000000001	0	0	1	1	0	11	1	1.1	0.9;
	3	1	0.016214	0.011292	0	0	1	1	0	11	1	1.1	0.9;
	4	1	0.034315	0.021845	0	0	1	1	0	11	1	1.1	0.9;
	5	1	0.07301600000000001	0.06360199999999999	0	0	1	1	0	11	1	1.1	0.9;
	6	1	0.1442	0.068604	0	0	1	1	0	11	1	1.1	0.9;
	7	1	0.10447000000000001	0.061725	0	0	1	1	0	11	1	1.1	0.9;
	8	1	0.028547	0.011503000000000001	0	0	1	1	0	11	1	1.1	0.9;
	9	1	0.08756	0.051073	0	0	1	1	0	11	1	1.1	0.9;
	10	1	0.1982	0.10677	0	0	1	1	0	11	1	1.1	0.9;
	11	1	0.1468	0.07599500000000001	0	0	1	1	0	11	1	1.1	0.9;
	12	1	0.02604	0.018687000000000002	0	0	1	1	0	11	1	1.1	0.9;
	13	1	0.0521	0.02322	0	0	1	1	0	11	1	1.1	0.9;
	14	1	0.1419	0.11750000000000001	0	0	1	1	0	11	1	1.1	0.9;
	15	1	0.02187	0.02879	0	0	1	1	0	11	1	1.1	0.9;
	16	1	0.03337	0.02645	0	0	1	1	0	11	1	1.1	0.9;
	17	1	0.03243	0.025230000000000002	0	0	1	1	0	11	1	1.1	0.9;
	18	1	0.020234000000000002	0.011906000000000002	0	0	1	1	0	11	1	1.1	0.9;
	19	1	0.15694	0.078523	0	0	1	1	0	11	1	1.1	0.9;
	20	1	0.5462899999999999	0.3514	0	0	1	1	0	11	1	1.1	0.9;
	21	1	0.18031	0.16419999999999998	0	0	1	1	0	11	1	1.1	0.9;
	22	1	0.093167	0.054594000000000004	0	0	1	1	0	11	1	1.1	0.9;
	23	1	0.08518	0.03965	0	0	1	1	0	11	1	1.1	0.9;
	24	1	0.1681	0.095178	0	0	1	1	0	11	1	1.1	0.9;
	25	1	0.12511	0.15022	0	0	1	1	0	11	1	1.1	0.9;
	26	1	0.016030000000000003	0.024620000000000003	0	0	1	1	0	11	1	1.1	0.9;
	27	1	0.02603	0.024620000000000003	0	0	1	1	0	11	1	1.1	0.9;
	28	1	0.59456	0.52262	0	0	1	1	0	11	1	1.1	0.9;
	29	1	0.12062	0.059116999999999996	0	0	1	1	0	11	1	1.1	0.9;
	30	1	0.10238	0.099554	0	0	1	1	0	11	1	1.1	0.9;
	31	1	0.5134	0.3185	0	0	1	1	0	11	1	1.1	0.9;
	32	1	0.47525	0.45614	0	0	1	1	0	11	1	1.1	0.9;
	33	1	0.15143	0.13679	0	0	1	1	0	11	1	1.1	0.9;
	34	1	0.20538	0.08330200000000001	0	0	1	1	0	11	1	1.1	0.9;
	35	1	0.1316	0.093082	0	0	1	1	0	11	1	1.1	0.9;
	36	1	0.44839999999999997	0.36979	0	0	1	1	0	11	1	1.1	0.9;
	37	1	0.44051999999999997	0.32164	0	0	1	1	0	11	1	1.1	0.9;
	38	1	0.11254000000000002	0.055134	0	0	1	1	0	11	1	1.1	0.9;
	39	1	0.053963000000000004	0.038998	0	0	1	1	0	11	1	1.1	0.9;
	40	1	0.39305	0.3426	0	0	1	1	0	11	1	1.1	0.9;
	41	1	0.32674000000000003	0.27856000000000003	0	0	1	1	0	11	1	1.1	0.9;
	42	1	0.53626	0.24024	0	0	1	1	0	11	1	1.1	0.9;
	43	1	0.076247	0.066562	0	0	1	1	0	11	1	1.1	0.9;
	44	1	0.053520000000000005	0.03976	0	0	1	1	0	11	1	1.1	0.9;
	45	1	0.040328	0.031964	0	0	1	1	0	11	1	1.1	0.9;
	46	1	0.039653	0.020758	0	0	1	1	0	11	1	1.1	0.9;
	47	1	0.06619499999999999	0.042360999999999996	0	0	1	1	0	11	1	1.1	0.9;
	48	1	0.073904	0.051653	0	0	1	1	0	11	1	1.1	0.9;
	49	1	0.11477	0.057965	0	0	1	1	0	11	1	1.1	0.9;
	50	1	0.91837	1.2050999999999998	0	0	1	1	0	11	1	1.1	0.9;
	51	1	0.21030000000000001	0.14666	0	0	1	1	0	11	1	1.1	0.9;
	52	1	0.06668	0.056608	0	0	1	1	0	11	1	1.1	0.9;
	53	1	0.042207	0.040184	0	0	1	1	0	11	1	1.1	0.9;
	54	1	0.43374	0.28341000000000005	0	0	1	1	0	11	1	1.1	0.9;
	55	1	0.0621	0.02686	0	0	1	1	0	11	1	1.1	0.9;
	56	1	0.09246	0.08838	0	0	1	1	0	11	1	1.1	0.9;
	57	1	0.085188	0.055436	0	0	1	1	0	11	1	1.1	0.9;
	58	1	0.3453	0.3324	0	0	1	1	0	11	1	1.1	0.9;
	59	1	0.0225	0.016829999999999998	0	0	1	1	0	11	1	1.1	0.9;
	60	1	0.080551	0.049156	0	0	1	1	0	11	1	1.1	0.9;
	61	1	0.09586	0.09075799999999999	0	0	1	1	0	11	1	1.1	0.9;
	62	1	0.06292	0.047700000000000006	0	0	1	1	0	11	1	1.1	0.9;
	63	1	0.4788	0.46374000000000004	0	0	1	1	0	11	1	1.1	0.9;
	64	1	0.12094	0.052006000000000004	0	0	1	1	0	11	1	1.1	0.9;
	65	1	0.13911	0.10034	0	0	1	1	0	11	1	1.1	0.9;
	66	1	0.39177999999999996	0.1935	0	0	1	1	0	11	1	1.1	0.9;
	67	1	0.027741000000000002	0.026713	0	0	1	1	0	11	1	1.1	0.9;
	68	1	0.052814	0.025257	0	0	1	1	0	11	1	1.1	0.9;
	69	1	0.06689	0.038713000000000004	0	0	1	1	0	11	1	1.1	0.9;
	70	1	0.4675	0.39514	0	0	1	1	0	11	1	1.1	0.9;
	71	1	0.59485	0.23974	0	0	1	1	0	11	1	1.1	0.9;
	72	1	0.1325	0.08436300000000001	0	0	1	1	0	11	1	1.1	0.9;
	73	1	0.052698999999999996	0.022482	0	0	1	1	0	11	1	1.1	0.9;
	74	1	0.86979	0.614775	0	0	1	1	0	11	1	1.1	0.9;
	75	1	0.031349	0.029817	0	0	1	1	0	11	1	1.1	0.9;
	76	1	0.19238999999999998	0.12243000000000001	0	0	1	1	0	11	1	1.1	0.9;
	77	1	0.06575	0.04537	0	0	1	1	0	11	1	1.1	0.9;
	78	1	0.23815	0.22322	0	0	1	1	0	11	1	1.1	0.9;
	79	1	0.29455000000000003	0.16247	0	0	1	1	0	11	1	1.1	0.9;
	80	1	0.48557	0.43792000000000003	0	0	1	1	0	11	1	1.1	0.9;
	81	1	0.24353	0.18303	0	0	1	1	0	11	1	1.1	0.9;
	82	1	0.24353	0.18303	0	0	1	1	0	11	1	1.1	0.9;
	83	1	0.13425	0.11929000000000001	0	0	1	1	0	11	1	1.1	0.9;
	84	1	0.02271	0.027960000000000002	0	0	1	1	0	11	1	1.1	0.9;
	85	1	0.049513	0.026515	0	0	1	1	0	11	1	1.1	0.9;
	86	1	0.38377999999999995	0.25716000000000006	0	0	1	1	0	11	1	1.1	0.9;
	87	1	0.049640000000000004	0.0206	0	0	1	1	0	11	1	1.1	0.9;
	88	1	0.022473	0.011805999999999999	0	0	1	1	0	11	1	1.1	0.9;
	89	1	0.06293	0.042960000000000005	0	0	1	1	0	11	1	1.1	0.9;
	90	1	0.030670000000000003	0.03493	0	0	1	1	0	11	1	1.1	0.9;
	91	1	0.06253	0.06679	0	0	1	1	0	11	1	1.1	0.9;
	92	1	0.11456999999999999	0.081748	0	0	1	1	0	11	1	1.1	0.9;
	93	1	0.081292	0.066526	0	0	1	1	0	11	1	1.1	0.9;
	94	1	0.031733000000000004	0.015960000000000002	0	0	1	1	0	11	1	1.1	0.9;
	95	1	0.03332	0.06048	0	0	1	1	0	11	1	1.1	0.9;
	96	1	0.53128	0.22485	0	0	1	1	0	11	1	1.1	0.9;
	97	1	0.50703	0.36742	0	0	1	1	0	11	1	1.1	0.9;
	98	1	0.02639	0.0117	0	0	1	1	0	11	1	1.1	0.9;
	99	1	0.04599	0.030392	0	0	1	1	0	11	1	1.1	0.9;
	100	1	0.10066	0.047572	0	0	1	1	0	11	1	1.1	0.9;
	101	1	0.45648000000000005	0.3503	0	0	1	1	0	11	1	1.1	0.9;
	102	1	0.5225599999999999	0.44929	0	0	1	1	0	11	1	1.1	0.9;
	103	1	0.40843	0.16846	0	0	1	1	0	11	1	1.1	0.9;
	104	1	0.14148	0.13425	0	0	1	1	0	11	1	1.1	0.9;
	105	1	0.10443000000000001	0.066024	0	0	1	1	0	11	1	1.1	0.9;
	106	1	0.096793	0.08364700000000001	0	0	1	1	0	11	1	1.1	0.9;
	107	1	0.49392	0.41934	0	0	1	1	0	11	1	1.1	0.9;
	108	1	0.22538	0.13588	0	0	1	1	0	11	1	1.1	0.9;
	109	1	0.5092099999999999	0.38721	0	0	1	1	0	11	1	1.1	0.9;
	110	1	0.1885	0.17346	0	0	1	1	0	11	1	1.1	0.9;
	111	1	0.91803	0.89855	0	0	1	1	0	11	1	1.1	0.9;
	112	1	0.30508	0.21537	0	0	1	1	0	11	1	1.1	0.9;
	113	1	0.054380000000000005	0.04097	0	0	1	1	0	11	1	1.1	0.9;
	114	1	0.21114	0.19290000000000002	0	0	1	1	0	11	1	1.1	0.9;
	115	1	0.067009	0.053336	0	0	1	1	0	11	1	1.1	0.9;
	116	1	0.16207	0.090321	0	0	1	1	0	11	1	1.1	0.9;
	117	1	0.048784999999999995	0.029155999999999998	0	0	1	1	0	11	1	1.1	0.9;
	118	1	0.0339	0.01898	0	0	1	1	0	11	1	1.1	0.9;
];

mpc.gen = [
	1	0	0	10	-10	1	100	1	10	0	0	0	0	0	0	0	0	0	0	0	0;
];

mpc.branch = [
	1	2	0.0029752066115702478	0.0010710743801652892	0	0	0	0	0	0	1	-360	360;
	2	3	0.0027272727272727275	0.0009818181818181818	0	0	0	0	0	0	1	-360	360;
	2	4	0.00371900826446281	0.0013388429752066115	0	0	0	0	0	0	1	-360	360;
	4	5	0.0012396694214876034	0.004462809917355372	0	0	0	0	0	0	1	-360	360;
	5	6	0.0012396694214876034	0.004462809917355372	0	0	0	0	0	0	1	-360	360;
	6	7	0.0012396694214876034	0.0010330578512396695	0	0	0	0	0	0	1	-360	360;
	7	8	0.0014876033057851239	0.0011570247933884298	0	0	0	0	0	0	1	-360	360;
	8	9	0.0017355371900826448	0.005206611570247934	0	0	0	0	0	0	1	-360	360;
	2	10	0.01371900826446281	0.011107438016528925	0	0	0	0	0	0	1	-360	360;
	10	11	0.009256198347107438	0.006520661157024793	0	0	0	0	0	0	1	-360	360;
	11	12	0.015454545454545455	0.025867768595041325	0	0	0	0	0	0	1	-360	360;
	12	13	0.011735537190082643	0.012495867768595043	0	0	0	0	0	0	1	-360	360;
	13	14	0.01487603305785124	0.009752066115702479	0	0	0	0	0	0	1	-360	360;
	14	15	0.012396694214876033	0.00371900826446281	0	0	0	0	0	0	1	-360	360;
	15	16	0.01322314049586777	0.01487603305785124	0	0	0	0	0	0	1	-360	360;
	16	17	0.012975206611570249	0.01413223140495868	0	0	0	0	0	0	1	-360	360;
	11	18	0.018016528925619835	0.023553719008264463	0	0	0	0	0	0	1	-360	360;
	18	19	0.009752066115702479	0.015289256198347107	0	0	0	0	0	0	1	-360	360;
	19	20	0.01322314049586777	0.01619834710743802	0	0	0	0	0	0	1	-360	360;
	20	21	0.009917355371900827	0.015619834710743801	0	0	0	0	0	0	1	-360	360;
	21	22	0.009917355371900827	0.006520661157024793	0	0	0	0	0	0	1	-360	360;
	22	23	0.1165289256198347	0.05975206611570248	0	0	0	0	0	0	1	-360	360;
	23	24	0.02421487603305785	0.011140495867768595	0	0	0	0	0	0	1	-360	360;
	24	25	0.010991735537190083	0.00859504132231405	0	0	0	0	0	0	1	-360	360;
	25	26	0.014710743801652892	0.011074380165289258	0	0	0	0	0	0	1	-360	360;
	26	27	0.014710743801652892	0.011074380165289258	0	0	0	0	0	0	1	-360	360;
	4	28	0.0012396694214876034	0.0024462809917355373	0	0	0	0	0	0	1	-360	360;
	28	29	0.0009917355371900827	0.00228099173553719	0	0	0	0	0	0	1	-360	360;
	29	30	0.009917355371900827	0.022859504132231406	0	0	0	0	0	0	1	-360	360;
	30	31	0.017355371900826446	0.020082644628099174	0	0	0	0	0	0	1	-360	360;
	31	32	0.009917355371900827	0.004462809917355372	0	0	0	0	0	0	1	-360	360;
	32	33	0.014710743801652892	0.019338842975206612	0	0	0	0	0	0	1	-360	360;
	33	34	0.014710743801652892	0.019338842975206612	0	0	0	0	0	0	1	-360	360;
	34	35	0.012727272727272728	0.013388429752066116	0	0	0	0	0	0	1	-360	360;
	30	36	0.015454545454545455	0.0215702479338843	0	0	0	0	0	0	1	-360	360;
	36	37	0.010991735537190083	0.008181818181818182	0	0	0	0	0	0	1	-360	360;
	29	38	0.027272727272727275	0.01603305785123967	0	0	0	0	0	0	1	-360	360;
	38	39	0.0256198347107438	0.01603305785123967	0	0	0	0	0	0	1	-360	360;
	39	40	0.010743801652892562	0.01603305785123967	0	0	0	0	0	0	1	-360	360;
	40	41	0.023140495867768597	0.012396694214876033	0	0	0	0	0	0	1	-360	360;
	41	42	0.09752066115702479	0.07024793388429752	0	0	0	0	0	0	1	-360	360;
	42	43	0.03471074380165289	0.020132231404958678	0	0	0	0	0	0	1	-360	360;
	43	44	0.022314049586776862	0.008033057851239669	0	0	0	0	0	0	1	-360	360;
	44	45	0.028016528925619837	0.010090909090909091	0	0	0	0	0	0	1	-360	360;
	45	46	0.022314049586776862	0.014702479338842975	0	0	0	0	0	0	1	-360	360;
	35	47	0.017355371900826446	0.011429752066115703	0	0	0	0	0	0	1	-360	360;
	47	48	0.009917355371900827	0.006520661157024793	0	0	0	0	0	0	1	-360	360;
	48	49	0.012396694214876033	0.00815702479338843	0	0	0	0	0	0	1	-360	360;
	49	50	0.012396694214876033	0.00815702479338843	0	0	0	0	0	0	1	-360	360;
	50	51	0.019834710743801654	0.013066115702479338	0	0	0	0	0	0	1	-360	360;
	51	52	0.009917355371900827	0.006520661157024793	0	0	0	0	0	0	1	-360	360;
	52	53	0.03347107438016529	0.012049586776859505	0	0	0	0	0	0	1	-360	360;
	53	54	0.03347107438016529	0.012049586776859505	0	0	0	0	0	0	1	-360	360;
	29	55	0.03231404958677686	0.01165289256198347	0	0	0	0	0	0	1	-360	360;
	55	56	0.03355371900826447	0.012074380165289257	0	0	0	0	0	0	1	-360	360;
	56	57	0.03355371900826447	0.012074380165289257	0	0	0	0	0	0	1	-360	360;
	57	58	0.05834710743801653	0.04513223140495868	0	0	0	0	0	0	1	-360	360;
	58	59	0.027933884297520663	0.010066115702479339	0	0	0	0	0	0	1	-360	360;
	59	60	0.027933884297520663	0.010066115702479339	0	0	0	0	0	0	1	-360	360;
	60	61	0.017107438016528927	0.006173553719008264	0	0	0	0	0	0	1	-360	360;
	61	62	0.02041322314049587	0.07373553719008265	0	0	0	0	0	0	1	-360	360;
	1	63	0.0023140495867768596	0.0034545454545454545	0	0	0	0	0	0	1	-360	360;
	63	64	0.009669421487603306	0.01666115702479339	0	0	0	0	0	0	1	-360	360;
	64	65	0.021074380165289258	0.007586776859504133	0	0	0	0	0	0	1	-360	360;
	65	66	0.017355371900826446	0.006272727272727273	0	0	0	0	0	0	1	-360	360;
	66	67	0.031652892561983476	0.011404958677685952	0	0	0	0	0	0	1	-360	360;
	67	68	0.04165289256198347	0.027297520661157024	0	0	0	0	0	0	1	-360	360;
	68	69	0.03355371900826447	0.012074380165289257	0	0	0	0	0	0	1	-360	360;
	69	70	0.07950413223140496	0.06289256198347108	0	0	0	0	0	0	1	-360	360;
	70	71	0.013636363636363637	0.0049586776859504135	0	0	0	0	0	0	1	-360	360;
	71	72	0.025041322314049586	0.009024793388429753	0	0	0	0	0	0	1	-360	360;
	72	73	0.025041322314049586	0.009024793388429753	0	0	0	0	0	0	1	-360	360;
	73	74	0.01702479338842975	0.011900826446280991	0	0	0	0	0	0	1	-360	360;
	74	75	0.01925619834710744	0.006942148760330579	0	0	0	0	0	0	1	-360	360;
	75	76	0.04884297520661157	0.014652892561983473	0	0	0	0	0	0	1	-360	360;
	76	77	0.010413223140495868	0.0037438016528925622	0	0	0	0	0	0	1	-360	360;
	64	78	0.046198347107438024	0.030471074380165292	0	0	0	0	0	0	1	-360	360;
	78	79	0.015371900826446282	0.010140495867768596	0	0	0	0	0	0	1	-360	360;
	79	80	0.015371900826446282	0.010140495867768596	0	0	0	0	0	0	1	-360	360;
	80	81	0.021487603305785124	0.011487603305785125	0	0	0	0	0	0	1	-360	360;
	81	82	0.012727272727272728	0.012231404958677685	0	0	0	0	0	0	1	-360	360;
	82	83	0.01900826446280992	0.010578512396694216	0	0	0	0	0	0	1	-360	360;
	83	84	0.020826446280991735	0.008760330578512396	0	0	0	0	0	0	1	-360	360;
	84	85	0.01487603305785124	0.012231404958677685	0	0	0	0	0	0	1	-360	360;
	79	86	0.01322314049586777	0.015041322314049586	0	0	0	0	0	0	1	-360	360;
	86	87	0.01652892561983471	0.01900826446280992	0	0	0	0	0	0	1	-360	360;
	87	88	0.01322314049586777	0.03247933884297521	0	0	0	0	0	0	1	-360	360;
	65	89	0.05528925619834711	0.01993388429752066	0	0	0	0	0	0	1	-360	360;
	89	90	0.021983471074380166	0.010140495867768596	0	0	0	0	0	0	1	-360	360;
	90	91	0.021983471074380166	0.010140495867768596	0	0	0	0	0	0	1	-360	360;
	91	92	0.021983471074380166	0.010140495867768596	0	0	0	0	0	0	1	-360	360;
	92	93	0.021983471074380166	0.010140495867768596	0	0	0	0	0	0	1	-360	360;
	93	94	0.01925619834710744	0.00950413223140496	0	0	0	0	0	0	1	-360	360;
	94	95	0.040991735537190085	0.011404958677685952	0	0	0	0	0	0	1	-360	360;
	91	96	0.01619834710743802	0.01487603305785124	0	0	0	0	0	0	1	-360	360;
	96	97	0.01619834710743802	0.01487603305785124	0	0	0	0	0	0	1	-360	360;
	97	98	0.015421487603305785	0.010082644628099173	0	0	0	0	0	0	1	-360	360;
	98	99	0.006165289256198347	0.02628099173553719	0	0	0	0	0	0	1	-360	360;
	1	100	0.005165289256198347	0.002190082644628099	0	0	0	0	0	0	1	-360	360;
	100	101	0.012404958677685951	0.019338842975206612	0	0	0	0	0	0	1	-360	360;
	101	102	0.011132231404958677	0.0073388429752066124	0	0	0	0	0	0	1	-360	360;
	102	103	0.01906611570247934	0.00994214876033058	0	0	0	0	0	0	1	-360	360;
	103	104	0.03694214876033058	0.013289256198347107	0	0	0	0	0	0	1	-360	360;
	104	105	0.013487603305785125	0.004859504132231405	0	0	0	0	0	0	1	-360	360;
	105	106	0.027272727272727275	0.008181818181818182	0	0	0	0	0	0	1	-360	360;
	106	107	0.012892561983471074	0.004636363636363636	0	0	0	0	0	0	1	-360	360;
	107	108	0.03156198347107438	0.011355371900826446	0	0	0	0	0	0	1	-360	360;
	108	109	0.013438016528925619	0.004834710743801653	0	0	0	0	0	0	1	-360	360;
	109	110	0.03156198347107438	0.011355371900826446	0	0	0	0	0	0	1	-360	360;
	110	111	0.020206611570247935	0.0072644628099173564	0	0	0	0	0	0	1	-360	360;
	110	112	0.01725619834710744	0.006223140495867769	0	0	0	0	0	0	1	-360	360;
	112	113	0.019016528925619836	0.00684297520661157	0	0	0	0	0	0	1	-360	360;
	100	114	0.0504297520661157	0.018148760330578512	0	0	0	0	0	0	1	-360	360;
	114	115	0.015421487603305785	0.010495867768595043	0	0	0	0	0	0	1	-360	360;
	115	116	0.03084297520661157	0.020330578512396693	0	0	0	0	0	0	1	-360	360;
	116	117	0.03347107438016529	0.030330578512396695	0	0	0	0	0	0	1	-360	360;
	117	118	0.04041322314049587	0.036198347107438016	0	0	0	0	0	0	1	-360	360;
	46	27	0.04345454545454546	0.024173553719008263	0	0	0	0	0	0	0	-360	360;
	17	27	0.04345454545454546	0.02409917355371901	0	0	0	0	0	0	0	-360	360;
	8	24	0.03530578512396695	0.012719008264462811	0	0	0	0	0	0	0	-360	360;
	54	43	0.03966942148760331	0.014280991735537192	0	0	0	0	0	0	0	-360	360;
	62	49	0.02975206611570248	0.010710743801652892	0	0	0	0	0	0	0	-360	360;
	37	62	0.047107438016528926	0.04727272727272727	0	0	0	0	0	0	0	-360	360;
	9	40	0.043801652892561986	0.027669421487603305	0	0	0	0	0	0	0	-360	360;
	58	96	0.032702479338842974	0.011776859504132231	0	0	0	0	0	0	0	-360	360;
	73	91	0.05619834710743802	0.053553719008264465	0	0	0	0	0	0	0	-360	360;
	88	75	0.0335702479338843	0.01209917355371901	0	0	0	0	0	0	0	-360	360;
	99	77	0.03823140495867769	0.013834710743801652	0	0	0	0	0	0	0	-360	360;
	108	83	0.05380165289256199	0.019338842975206612	0	0	0	0	0	0	0	-360	360;
	105	86	0.06714876033057851	0.024173553719008263	0	0	0	0	0	0	0	-360	360;
	110	118	0.058586776859504135	0.02109917355371901	0	0	0	0	0	0	0	-360	360;
	25	35	0.04132231404958678	0.04132231404958678	0	0	0	0	0	0	0	-360	360;
];

mpc.gencost = [
	2	0	0	3	0	20	0;
];
